64

Si  3.825167e+00  6.397687e-01  1.026759e+01
Si  6.270639e+00  3.969236e+00  4.060448e+00
Si  7.673149e+00  9.330133e+00  8.524616e+00
Si  3.986679e+00  9.403435e+00  4.995523e+00
Si  1.031924e+01  6.429565e+00  9.497650e+00
Si  7.953194e+00  5.451605e+00  3.434225e+00
Si  8.340591e+00  4.953157e+00  1.088243e+00
Si  1.843584e+00  8.939722e+00  6.106554e+00
Si  3.322036e+00  1.059562e+01  3.024050e+00
Si  7.841484e+00  1.370180e+00  1.086394e+01
Si  8.249323e+00  7.032255e+00  8.735550e+00
Si  6.796722e+00  8.183366e-01  5.739214e+00
Si  7.235394e+00  1.854180e+00  3.743733e+00
Si  3.631685e+00  3.368485e+00  7.393236e+00
Si  7.304537e+00  7.778488e+00  3.662270e+00
Si  1.180861e+00  1.087994e+01  7.296951e+00
Si  1.075724e+01  4.155970e+00  8.551102e+00
Si  2.370072e+00  8.176523e+00  3.540860e-01
Si  6.675823e+00  5.862867e-01  1.812555e+00
Si  5.242262e+00  7.563334e+00  4.656827e+00
Si  9.913557e+00  6.625185e+00  7.994348e-01
Si  4.426659e+00  1.108746e+00  1.531489e+00
Si  5.513529e+00  4.067169e+00  6.256157e+00
Si  4.820307e+00  1.093597e+01  6.550331e+00
Si  1.498325e+00  4.262428e+00  9.789735e-01
Si  4.885092e+00  6.224688e+00  1.031237e+01
Si  4.040581e+00  6.548548e+00  2.986330e+00
Si  8.332457e+00  1.024134e+01  6.379169e+00
Si  1.575316e+00  1.010404e+01  1.519365e+00
Si  9.079971e+00  8.215925e+00  5.168165e+00
Si  1.061940e+01  9.918167e+00  2.667750e+00
Si  2.951833e-01  1.028796e+01  9.326862e+00
Si  4.707354e+00  7.803520e+00  1.090813e+00
Si  2.912108e+00  1.384661e+00  6.395674e+00
Si  4.624352e+00  7.489656e+00  8.255388e+00
Si  7.021591e+00  5.393394e+00  1.003105e+01
Si  3.822106e+00  4.389219e+00  2.730466e-01
Si  9.434687e+00  2.457432e+00  3.214567e+00
Si  1.192158e+00  8.087923e+00  9.275826e+00
Si  9.329378e+00  2.910530e+00  8.877393e-01
Si  4.171354e-01  8.346375e+00  4.369080e+00
Si  2.429877e+00  7.153833e+00  7.519136e+00
Si  1.155655e+00  4.787605e+00  4.842173e+00
Si  1.067207e+01  8.943235e-01  4.097385e+00
Si  1.016196e+01  8.244458e-01  6.402481e+00
Si  6.667488e+00  9.018164e+00  1.734421e+00
Si  5.755281e+00  6.341349e+00  6.524591e+00
Si  2.283199e+00  3.385140e+00  3.107134e+00
Si  3.455840e-01  2.808028e+00  1.048007e+01
Si  1.076014e+00  6.425138e+00  1.394218e+00
Si  7.205263e+00  2.639422e+00  7.135422e+00
Si  1.668009e+00  6.637638e+00  3.592234e+00
Si  6.677788e+00  2.946802e+00  9.386673e+00
Si  8.139679e+00  6.479126e+00  6.553957e+00
Si  1.682714e+00  4.866085e+00  7.181231e+00
Si  4.437662e+00  4.290657e+00  2.668555e+00
Si  5.206329e+00  9.749874e+00  8.537294e+00
Si  9.433258e+00  3.268047e+00  6.740347e+00
Si  1.519163e+00  7.296296e-01  1.069675e+01
Si  9.002722e+00  1.040487e+01  9.994425e+00
Si  2.090984e+00  1.275522e+00  4.098396e+00
Si  8.988770e+00  8.822538e+00  9.481164e-01
Si  4.370899e+00  2.683124e+00  9.550953e+00
Si  9.747356e+00  4.405607e+00  4.734743e+00
